<?xml version="1.0" encoding="UTF-8"?>

<!-- generated on 2025-03-27 15:46:15 by Eclipse SUMO netconvert Version 1.22.0
<netconvertConfiguration xmlns:xsi="http://www.w3.org/2001/XMLSchema-instance" xsi:noNamespaceSchemaLocation="http://sumo.dlr.de/xsd/netconvertConfiguration.xsd">

    <input>
        <node-files value="airport-node.nod.xml"/>
        <edge-files value="airport-edge.edg.xml"/>
    </input>

    <output>
        <output-file value="airport-net.net.xml"/>
    </output>

</netconvertConfiguration>
-->

<net version="1.20" junctionCornerDetail="5" limitTurnSpeed="5.50" xmlns:xsi="http://www.w3.org/2001/XMLSchema-instance" xsi:noNamespaceSchemaLocation="http://sumo.dlr.de/xsd/net_file.xsd">

    <location netOffset="0.00,0.00" convBoundary="0.00,0.00,200.00,100.00" origBoundary="0.00,0.00,200.00,100.00" projParameter="!"/>

    <edge id=":Gate1_0" function="internal">
        <lane id=":Gate1_0_0" index="0" speed="13.89" length="0.10" shape="51.13,48.87 51.13,48.87"/>
    </edge>
    <edge id=":Gate2_0" function="internal">
        <lane id=":Gate2_0_0" index="0" speed="3.90" length="2.58" shape="151.13,48.87 151.56,49.43 151.70,50.00 151.56,50.57 151.13,51.13"/>
    </edge>
    <edge id=":T2_0" function="internal">
        <lane id=":T2_0_0" index="0" speed="13.89" length="7.84" shape="98.34,-1.60 106.18,-1.60"/>
    </edge>
    <edge id=":T2_1" function="internal">
        <lane id=":T2_1_0" index="0" speed="9.11" length="7.49" shape="98.34,-1.60 99.60,-1.36 101.06,-0.62 102.71,0.60 104.57,2.30"/>
    </edge>

    <edge id="G1_Cargo" from="Gate1" to="Cargo" priority="-1">
        <lane id="G1_Cargo_0" index="0" speed="13.89" length="69.21" shape="51.13,48.87 100.07,97.81"/>
    </edge>
    <edge id="G2_Cargo" from="Gate2" to="Cargo" priority="-1">
        <lane id="G2_Cargo_0" index="0" speed="13.89" length="66.01" shape="151.13,51.13 104.45,97.81"/>
    </edge>
    <edge id="T1_G1" from="T1" to="Gate1" priority="-1">
        <lane id="T1_G1_0" index="0" speed="13.89" length="66.01" shape="4.45,2.19 51.13,48.87"/>
    </edge>
    <edge id="T1_T2" from="T1" to="T2" priority="-1">
        <lane id="T1_T2_0" index="0" speed="13.89" length="92.32" shape="6.03,-1.60 98.34,-1.60"/>
    </edge>
    <edge id="T2_Exit" from="T2" to="Exit" priority="-1">
        <lane id="T2_Exit_0" index="0" speed="13.89" length="93.82" shape="106.18,-1.60 200.00,-1.60"/>
    </edge>
    <edge id="T2_G2" from="T2" to="Gate2" priority="-1">
        <lane id="T2_G2_0" index="0" speed="13.89" length="65.85" shape="104.57,2.30 151.13,48.87"/>
    </edge>

    <junction id="Cargo" type="dead_end" x="100.00" y="100.00" incLanes="G2_Cargo_0 G1_Cargo_0" intLanes="" shape="105.59,98.94 103.32,96.68 102.62,97.15 102.26,97.21 101.91,97.15 101.56,96.97 101.20,96.68 98.94,98.94 101.15,100.42 102.26,100.60 103.37,100.42 104.48,99.86"/>
    <junction id="Exit" type="dead_end" x="200.00" y="0.00" incLanes="T2_Exit_0" intLanes="" shape="200.00,-3.20 200.00,0.00"/>
    <junction id="Gate1" type="priority" x="50.00" y="50.00" incLanes="T1_G1_0" intLanes=":Gate1_0_0" shape="50.00,50.00 52.26,47.74 50.00,50.00">
        <request index="0" response="0" foes="0" cont="0"/>
    </junction>
    <junction id="Gate2" type="priority" x="150.00" y="50.00" incLanes="T2_G2_0" intLanes=":Gate2_0_0" shape="152.26,47.74 150.00,50.00 152.26,52.26 153.27,50.75 153.39,50.00 153.27,49.25 152.89,48.49">
        <request index="0" response="0" foes="0" cont="0"/>
    </junction>
    <junction id="T1" type="dead_end" x="0.00" y="0.00" incLanes="" intLanes="" shape="3.32,3.32 5.59,1.06 5.16,0.47 5.17,0.27 5.31,0.12 5.60,0.03 6.03,0.00 6.03,-3.20 3.39,-3.02 1.63,-2.48 0.74,-1.57 0.72,-0.30 1.59,1.33"/>
    <junction id="T2" type="priority" x="100.00" y="0.00" incLanes="T1_T2_0" intLanes=":T2_0_0 :T2_1_0" shape="103.43,3.43 105.70,1.17 105.23,0.52 105.23,0.29 105.39,0.13 105.71,0.03 106.18,0.00 106.18,-3.20 98.34,-3.20 98.34,0.00 99.65,0.38 100.44,0.86 101.34,1.53 102.34,2.38">
        <request index="0" response="00" foes="00" cont="0"/>
        <request index="1" response="00" foes="00" cont="0"/>
    </junction>

    <connection from="T1_G1" to="G1_Cargo" fromLane="0" toLane="0" via=":Gate1_0_0" dir="s" state="M"/>
    <connection from="T1_T2" to="T2_Exit" fromLane="0" toLane="0" via=":T2_0_0" dir="s" state="M"/>
    <connection from="T1_T2" to="T2_G2" fromLane="0" toLane="0" via=":T2_1_0" dir="l" state="M"/>
    <connection from="T2_G2" to="G2_Cargo" fromLane="0" toLane="0" via=":Gate2_0_0" dir="l" state="M"/>

    <connection from=":Gate1_0" to="G1_Cargo" fromLane="0" toLane="0" dir="s" state="M"/>
    <connection from=":Gate2_0" to="G2_Cargo" fromLane="0" toLane="0" dir="l" state="M"/>
    <connection from=":T2_0" to="T2_Exit" fromLane="0" toLane="0" dir="s" state="M"/>
    <connection from=":T2_1" to="T2_G2" fromLane="0" toLane="0" dir="l" state="M"/>

</net>
