<?xml version="1.0" encoding="UTF-8"?>
<net>
    <nodes>
        <node id="n1" x="0.0" y="0.0" />
        <node id="n2" x="200.0" y="0.0" />
        <node id="n3" x="200.0" y="200.0" />
        <node id="n4" x="0.0" y="200.0" />
    </nodes>
    <edges>
        <edge id="e1" from="n1" to="n2" numLanes="1" speed="13.9" />
        <edge id="e2" from="n2" to="n3" numLanes="1" speed="13.9" />
        <edge id="e3" from="n3" to="n4" numLanes="1" speed="13.9" />
        <edge id="e4" from="n4" to="n1" numLanes="1" speed="13.9" />
    </edges>
</net>