<additional>
  <edges id="component_1" color="blue" fill="1">
    <edge id="-1024305787#0"/>
    <edge id="436923708#3"/>
    <edge id="-436923708#2"/>
    <edge id="1024305787#0"/>
    <edge id="436923708#4"/>
    <edge id="-469727881#1"/>
    <edge id="-469727857#1"/>
    <edge id="-436923708#1"/>
    <edge id="1024305787#1"/>
    <edge id="-436923708#4"/>
    <edge id="-469727881#0"/>
    <edge id="469727881#1"/>
    <edge id="-469727857#0"/>
    <edge id="469727857#1"/>
    <edge id="427909547#0"/>
    <edge id="-436923708#0"/>
    <edge id="436923708#1"/>
    <edge id="1024305787#2"/>
    <edge id="-1024305787#3"/>
    <edge id="-1024305787#1"/>
    <edge id="-436923708#3"/>
    <edge id="469728180#3"/>
    <edge id="-469728180#2"/>
    <edge id="469727881#0"/>
    <edge id="-469727818#0"/>
    <edge id="469727818#1"/>
    <edge id="469727857#0"/>
    <edge id="436923708#2"/>
    <edge id="427909547#1"/>
    <edge id="-436923709#4"/>
    <edge id="65583963#0"/>
    <edge id="436923708#0"/>
    <edge id="1024305787#3"/>
    <edge id="-1024305787#2"/>
    <edge id="-469728180#3"/>
    <edge id="1315514331"/>
    <edge id="-469728180#1"/>
    <edge id="469728180#2"/>
    <edge id="-469728111#0"/>
    <edge id="469728111#1"/>
    <edge id="469727818#0"/>
    <edge id="-469727818#1"/>
    <edge id="427909547#2"/>
    <edge id="-436923709#3"/>
    <edge id="65583963#1"/>
    <edge id="-469728180#0"/>
    <edge id="469728180#1"/>
    <edge id="-1315514330"/>
    <edge id="-469728111#1"/>
    <edge id="469728111#0"/>
    <edge id="687883557#0"/>
    <edge id="427909547#3"/>
    <edge id="703030892#0"/>
    <edge id="-436923709#2"/>
    <edge id="469728180#0"/>
    <edge id="687883557#1"/>
    <edge id="-687883557#0"/>
    <edge id="374778144#0"/>
    <edge id="428003745"/>
    <edge id="703030893"/>
    <edge id="703030892#1"/>
    <edge id="-703030892#0"/>
    <edge id="-436923709#1"/>
    <edge id="-469847950#1"/>
    <edge id="687883557#2"/>
    <edge id="-1315522030"/>
    <edge id="-687883557#1"/>
    <edge id="374778144#1"/>
    <edge id="-374778144#0"/>
    <edge id="-442000785#1"/>
    <edge id="479818843"/>
    <edge id="722820039#0"/>
    <edge id="-703030893"/>
    <edge id="-703030892#1"/>
    <edge id="436923709#3"/>
    <edge id="-787087417"/>
    <edge id="-436923709#0"/>
    <edge id="469847967#0"/>
    <edge id="-469847950#0"/>
    <edge id="469847950#1"/>
    <edge id="687883557#3"/>
    <edge id="1315522031"/>
    <edge id="-687883557#2"/>
    <edge id="374778153#0"/>
    <edge id="374778144#2"/>
    <edge id="-374778144#1"/>
    <edge id="-442000785#0"/>
    <edge id="442000785#1"/>
    <edge id="-374778153#3"/>
    <edge id="1057081666"/>
    <edge id="722820039#1"/>
    <edge id="428003748"/>
    <edge id="-722820039#0"/>
    <edge id="436923709#4"/>
    <edge id="-679523236#0"/>
    <edge id="679523236#1"/>
    <edge id="787087417"/>
    <edge id="-6513755"/>
    <edge id="469847967#1"/>
    <edge id="469847856"/>
    <edge id="-469847967#0"/>
    <edge id="469847950#0"/>
    <edge id="436923709#2"/>
    <edge id="374778153#1"/>
    <edge id="-374778153#0"/>
    <edge id="-687883557#3"/>
    <edge id="-374778153#2"/>
    <edge id="374778153#3"/>
    <edge id="247350405#0"/>
    <edge id="722820039#2"/>
    <edge id="428003746#0"/>
    <edge id="679523235#1"/>
    <edge id="679523252#0"/>
    <edge id="679523236#0"/>
    <edge id="679523250#1"/>
    <edge id="759730349#0"/>
    <edge id="-679523250#0"/>
    <edge id="-679523236#1"/>
    <edge id="436923709#1"/>
    <edge id="6513755"/>
    <edge id="469847967#2"/>
    <edge id="-469847859"/>
    <edge id="-469847967#1"/>
    <edge id="-469847856"/>
    <edge id="374778153#2"/>
    <edge id="374778138"/>
    <edge id="-374778153#1"/>
    <edge id="469728198#0"/>
    <edge id="247350405#1"/>
    <edge id="869951545"/>
    <edge id="-466704877#1"/>
    <edge id="722820039#3"/>
    <edge id="428003746#1"/>
    <edge id="925338341"/>
    <edge id="-722820039#3"/>
    <edge id="1083496057#1"/>
    <edge id="679523252#1"/>
    <edge id="679523253"/>
    <edge id="-679523252#0"/>
    <edge id="-679523253"/>
    <edge id="679523250#2"/>
    <edge id="-679523250#1"/>
    <edge id="-679523250#3"/>
    <edge id="759730349#1"/>
    <edge id="679523250#0"/>
    <edge id="-759730349#0"/>
    <edge id="436923709#0"/>
    <edge id="-469847967#2"/>
    <edge id="469847859"/>
    <edge id="-374778138"/>
    <edge id="469728198#1"/>
    <edge id="-469728198#0"/>
    <edge id="427909545#1"/>
    <edge id="469847973#0"/>
    <edge id="-869951545"/>
    <edge id="-466704877#0"/>
    <edge id="869951546"/>
    <edge id="466704877#1"/>
    <edge id="722820040#0"/>
    <edge id="-722820040#7"/>
    <edge id="-925338341"/>
    <edge id="-722820039#2"/>
    <edge id="679523251#1"/>
    <edge id="1083496060"/>
    <edge id="-679523251#0"/>
    <edge id="-679523252#1"/>
    <edge id="679523251#0"/>
    <edge id="1083496058"/>
    <edge id="679523250#3"/>
    <edge id="-679523250#2"/>
    <edge id="679523249"/>
    <edge id="759730349#2"/>
    <edge id="-759730349#1"/>
    <edge id="469728198#2"/>
    <edge id="-469728152#1"/>
    <edge id="-469728198#1"/>
    <edge id="427909582"/>
    <edge id="-440179153#1"/>
    <edge id="-479818845#1"/>
    <edge id="247350406#0"/>
    <edge id="469847973#1"/>
    <edge id="466704877#0"/>
    <edge id="-759730350#0"/>
    <edge id="759730350#1"/>
    <edge id="-869951546"/>
    <edge id="722820040#1"/>
    <edge id="469847823"/>
    <edge id="-722820040#0"/>
    <edge id="469847822"/>
    <edge id="-722820040#6"/>
    <edge id="722820040#7"/>
    <edge id="-722820039#1"/>
    <edge id="-679523251#1"/>
    <edge id="-759730350#1"/>
    <edge id="759730350#2"/>
    <edge id="-1083496059"/>
    <edge id="-1083496056"/>
    <edge id="-679523254"/>
    <edge id="679523229#2"/>
    <edge id="-679523229#1"/>
    <edge id="-679523249"/>
    <edge id="679523243#0"/>
    <edge id="759730349#3"/>
    <edge id="-759730349#2"/>
    <edge id="469728087#0"/>
    <edge id="469728198#3"/>
    <edge id="-469728198#2"/>
    <edge id="-469728152#0"/>
    <edge id="-469728141#1"/>
    <edge id="469728152#1"/>
    <edge id="479818846"/>
    <edge id="-440179153#0"/>
    <edge id="-479818845#0"/>
    <edge id="247350406#1"/>
    <edge id="1083496055"/>
    <edge id="759730350#0"/>
    <edge id="-679523232"/>
    <edge id="722820040#2"/>
    <edge id="-722820040#1"/>
    <edge id="-722820040#2"/>
    <edge id="722820040#3"/>
    <edge id="-469847823"/>
    <edge id="-722820040#3"/>
    <edge id="722820040#4"/>
    <edge id="-469847822"/>
    <edge id="469847817"/>
    <edge id="-722820040#5"/>
    <edge id="722820040#6"/>
    <edge id="1083496054"/>
    <edge id="1083496056"/>
    <edge id="-759730350#2"/>
    <edge id="679523229#3"/>
    <edge id="-679523231"/>
    <edge id="-679523229#2"/>
    <edge id="679523231"/>
    <edge id="-679523229#0"/>
    <edge id="679523229#1"/>
    <edge id="679523243#1"/>
    <edge id="-679523243#2"/>
    <edge id="-679523243#0"/>
    <edge id="-759730348#6"/>
    <edge id="759730348#0"/>
    <edge id="-759730349#3"/>
    <edge id="-469727848"/>
    <edge id="469728087#1"/>
    <edge id="-469728087#0"/>
    <edge id="1203876625#1"/>
    <edge id="-1203876625#0"/>
    <edge id="-469728198#3"/>
    <edge id="469728152#0"/>
    <edge id="-469727949"/>
    <edge id="-469728141#0"/>
    <edge id="469728141#1"/>
    <edge id="469728010#0"/>
    <edge id="479818840"/>
    <edge id="440179166#0"/>
    <edge id="-479818839#1"/>
    <edge id="-427909588"/>
    <edge id="427909542"/>
    <edge id="-722816050#0"/>
    <edge id="722816050#1"/>
    <edge id="679523232"/>
    <edge id="722820040#5"/>
    <edge id="-469847817"/>
    <edge id="-722820040#4"/>
    <edge id="679523229#4"/>
    <edge id="679523230"/>
    <edge id="-679523229#3"/>
    <edge id="142032185#8"/>
    <edge id="-142032185#7"/>
    <edge id="679523229#0"/>
    <edge id="679523243#2"/>
    <edge id="-679523243#1"/>
    <edge id="-759730348#5"/>
    <edge id="679523237"/>
    <edge id="759730348#6"/>
    <edge id="-679523237"/>
    <edge id="759730348#1"/>
    <edge id="-759730348#0"/>
    <edge id="469727848"/>
    <edge id="-469728087#1"/>
    <edge id="-1203876625#1"/>
    <edge id="1203876625#0"/>
    <edge id="469727949"/>
    <edge id="469728141#0"/>
    <edge id="469728010#1"/>
    <edge id="-469728010#0"/>
    <edge id="738664208"/>
    <edge id="440179166#1"/>
    <edge id="440179164#0"/>
    <edge id="-440179166#0"/>
    <edge id="-479818839#0"/>
    <edge id="479818838#0"/>
    <edge id="-479818851"/>
    <edge id="722816050#0"/>
    <edge id="-722816050#1"/>
    <edge id="679523247"/>
    <edge id="679523229#5"/>
    <edge id="-679523229#4"/>
    <edge id="142032185#9"/>
    <edge id="-142032185#8"/>
    <edge id="-679523230"/>
    <edge id="645745933"/>
    <edge id="-142032185#6"/>
    <edge id="142032185#7"/>
    <edge id="-759730348#4"/>
    <edge id="679523238"/>
    <edge id="759730348#5"/>
    <edge id="-679523238"/>
    <edge id="759730348#2"/>
    <edge id="-759730348#1"/>
    <edge id="469728010#2"/>
    <edge id="-469728010#1"/>
    <edge id="1203876626#0"/>
    <edge id="-738664208"/>
    <edge id="440179166#2"/>
    <edge id="469728034"/>
    <edge id="-440179166#1"/>
    <edge id="-469728034"/>
    <edge id="440179164#1"/>
    <edge id="-440179164#0"/>
    <edge id="-469728168"/>
    <edge id="-688204148#3"/>
    <edge id="479818837"/>
    <edge id="479818838#1"/>
    <edge id="-479818838#0"/>
    <edge id="-427909590"/>
    <edge id="-679523247"/>
    <edge id="679523229#6"/>
    <edge id="-679523229#5"/>
    <edge id="142032185#10"/>
    <edge id="-645745933"/>
    <edge id="-142032185#9"/>
    <edge id="-142032185#5"/>
    <edge id="426849223"/>
    <edge id="142032185#6"/>
    <edge id="-759730348#3"/>
    <edge id="679523239"/>
    <edge id="759730348#4"/>
    <edge id="-679523239"/>
    <edge id="759730348#3"/>
    <edge id="-759730348#2"/>
    <edge id="469727931"/>
    <edge id="-469728010#2"/>
    <edge id="1203876626#1"/>
    <edge id="-1203876626#0"/>
    <edge id="-469727945#1"/>
    <edge id="-479818840"/>
    <edge id="440179166#3"/>
    <edge id="440179161"/>
    <edge id="-440179166#2"/>
    <edge id="-738664210"/>
    <edge id="469728114"/>
    <edge id="-440179164#1"/>
    <edge id="469728168"/>
    <edge id="-688204148#2"/>
    <edge id="-479818837"/>
    <edge id="479818838#2"/>
    <edge id="479818831"/>
    <edge id="-479818838#1"/>
    <edge id="479818839#1"/>
    <edge id="-162978580#2"/>
    <edge id="-479818852"/>
    <edge id="479818854#1"/>
    <edge id="-679523229#6"/>
    <edge id="679523227#0"/>
    <edge id="-142032185#10"/>
    <edge id="-142032185#4"/>
    <edge id="-426849223"/>
    <edge id="142032185#5"/>
    <edge id="1203876626#2"/>
    <edge id="1203876615"/>
    <edge id="-1203876626#1"/>
    <edge id="-469727945#0"/>
    <edge id="469727945#1"/>
    <edge id="-479818846"/>
    <edge id="440179166#4"/>
    <edge id="-440179166#3"/>
    <edge id="469727945#0"/>
    <edge id="738664209"/>
    <edge id="-440179161"/>
    <edge id="-738664209"/>
    <edge id="469727817"/>
    <edge id="738664210"/>
    <edge id="-469728114"/>
    <edge id="479818839#0"/>
    <edge id="-688204148#1"/>
    <edge id="-479818838#2"/>
    <edge id="-479818831"/>
    <edge id="440179153#0"/>
    <edge id="-162978580#1"/>
    <edge id="162978580#2"/>
    <edge id="479818853"/>
    <edge id="479818852"/>
    <edge id="-142032177#3"/>
    <edge id="679523227#1"/>
    <edge id="-679523227#0"/>
    <edge id="91658176#0"/>
    <edge id="-142032185#3"/>
    <edge id="142032185#4"/>
    <edge id="469727813#0"/>
    <edge id="-1203876617"/>
    <edge id="-1203876626#2"/>
    <edge id="-1203876615"/>
    <edge id="-440179166#4"/>
    <edge id="-427909582"/>
    <edge id="-469727817"/>
    <edge id="-688204148#0"/>
    <edge id="479818820"/>
    <edge id="440179153#1"/>
    <edge id="-162978580#0"/>
    <edge id="479818841"/>
    <edge id="162978580#1"/>
    <edge id="427909590"/>
    <edge id="-260513911#2"/>
    <edge id="893179837#0"/>
    <edge id="-142032177#2"/>
    <edge id="142032177#3"/>
    <edge id="142032173#0"/>
    <edge id="679523227#2"/>
    <edge id="-679523227#1"/>
    <edge id="-481558795"/>
    <edge id="91658176#3"/>
    <edge id="-91658176#2"/>
    <edge id="142032172#0"/>
    <edge id="-142032185#2"/>
    <edge id="142032185#3"/>
    <edge id="469727854"/>
    <edge id="469727813#1"/>
    <edge id="1203876617"/>
    <edge id="-447574324"/>
    <edge id="479818819"/>
    <edge id="1167170439"/>
    <edge id="467470141#0"/>
    <edge id="-479818841"/>
    <edge id="479818851"/>
    <edge id="-260513911#1"/>
    <edge id="426849224#0"/>
    <edge id="-467533682#1"/>
    <edge id="893179837#1"/>
    <edge id="-893179837#0"/>
    <edge id="-142032177#1"/>
    <edge id="1165929877#0"/>
    <edge id="142032177#2"/>
    <edge id="1165930450"/>
    <edge id="142032173#1"/>
    <edge id="-142032173#0"/>
    <edge id="91658186#0"/>
    <edge id="679523227#3"/>
    <edge id="-679523227#2"/>
    <edge id="91658176#4"/>
    <edge id="-91658176#3"/>
    <edge id="481558795"/>
    <edge id="142032172#1"/>
    <edge id="142032183"/>
    <edge id="-142032172#0"/>
    <edge id="-142032185#1"/>
    <edge id="-421771693#2"/>
    <edge id="142032185#2"/>
    <edge id="469727813#2"/>
    <edge id="1203876622"/>
    <edge id="-53221737"/>
    <edge id="893179837#8"/>
    <edge id="-893179837#7"/>
    <edge id="-1167170437#3"/>
    <edge id="1167170438"/>
    <edge id="467533682#0"/>
    <edge id="467470141#1"/>
    <edge id="-467470141#0"/>
    <edge id="427909588"/>
    <edge id="-260513911#0"/>
    <edge id="-426849225#1"/>
    <edge id="426849224#1"/>
    <edge id="-426849224#0"/>
    <edge id="-467533682#0"/>
    <edge id="-479818829"/>
    <edge id="467533682#1"/>
    <edge id="893179851"/>
    <edge id="893179837#2"/>
    <edge id="-1166062486#2"/>
    <edge id="-893179837#1"/>
    <edge id="-142032177#0"/>
    <edge id="-1165930451"/>
    <edge id="142032177#1"/>
    <edge id="1165929877#1"/>
    <edge id="-1165929877#2"/>
    <edge id="-1165929877#0"/>
    <edge id="-1165930450"/>
    <edge id="142032173#2"/>
    <edge id="91658190#0"/>
    <edge id="-142032173#1"/>
    <edge id="-91658190#0"/>
    <edge id="91658186#1"/>
    <edge id="91658190#1"/>
    <edge id="-91658186#0"/>
    <edge id="-91658197#2"/>
    <edge id="679523227#4"/>
    <edge id="-679523227#3"/>
    <edge id="481558792"/>
    <edge id="91658176#6"/>
    <edge id="-91658176#5"/>
    <edge id="-142032184#2"/>
    <edge id="142032172#2"/>
    <edge id="-142032172#1"/>
    <edge id="-142032185#0"/>
    <edge id="142032185#1"/>
    <edge id="-142032183"/>
    <edge id="-421771693#0"/>
    <edge id="421771693#1"/>
    <edge id="-53221736"/>
    <edge id="893179837#9"/>
    <edge id="-893179837#10"/>
    <edge id="-893179837#8"/>
    <edge id="-893179837#6"/>
    <edge id="479818821"/>
    <edge id="893179837#7"/>
    <edge id="1167172363"/>
    <edge id="-1167170437#2"/>
    <edge id="467533683"/>
    <edge id="1167170437#3"/>
    <edge id="162978580#0"/>
    <edge id="-467470141#1"/>
    <edge id="479818860#0"/>
    <edge id="479818845#0"/>
    <edge id="-428056583#0"/>
    <edge id="426849221#0"/>
    <edge id="-426849225#0"/>
    <edge id="426849225#1"/>
    <edge id="426849224#2"/>
    <edge id="-426849229"/>
    <edge id="-426849224#1"/>
    <edge id="260513911#2"/>
    <edge id="-985544009"/>
    <edge id="-893179851"/>
    <edge id="-893179852"/>
    <edge id="893179837#3"/>
    <edge id="-893179837#2"/>
    <edge id="-1166062486#1"/>
    <edge id="142032177#0"/>
    <edge id="1166062486#2"/>
    <edge id="1165930451"/>
    <edge id="1165929877#2"/>
    <edge id="-1165929877#1"/>
    <edge id="142032173#3"/>
    <edge id="91658181#0"/>
    <edge id="-142032173#2"/>
    <edge id="91658186#2"/>
    <edge id="437451396#0"/>
    <edge id="-91658186#1"/>
    <edge id="-437451396#1"/>
    <edge id="91658190#2"/>
    <edge id="-91658190#1"/>
    <edge id="-91658197#1"/>
    <edge id="-1165469169"/>
    <edge id="91658197#2"/>
    <edge id="437397349"/>
    <edge id="679523227#5"/>
    <edge id="-679523227#4"/>
    <edge id="-481558792"/>
    <edge id="-481558794"/>
    <edge id="91658176#7"/>
    <edge id="-91658176#6"/>
    <edge id="645717971"/>
    <edge id="-142032184#1"/>
    <edge id="142032184#2"/>
    <edge id="142032172#3"/>
    <edge id="-142032180"/>
    <edge id="-142032172#2"/>
    <edge id="-142032175"/>
    <edge id="-421771939"/>
    <edge id="481592463"/>
    <edge id="421771693#0"/>
    <edge id="-409850169#2"/>
    <edge id="893179857"/>
    <edge id="893179837#10"/>
    <edge id="-893179837#9"/>
    <edge id="-893179837#5"/>
    <edge id="479818818"/>
    <edge id="893179837#6"/>
    <edge id="479818833"/>
    <edge id="484669420"/>
    <edge id="-1167172363"/>
    <edge id="893179870"/>
    <edge id="-1167170437#1"/>
    <edge id="1167170437#2"/>
    <edge id="479818829"/>
    <edge id="479818860#1"/>
    <edge id="-479818860#0"/>
    <edge id="479818845#1"/>
    <edge id="-5155131"/>
    <edge id="6506869#0"/>
    <edge id="428056582"/>
    <edge id="426849221#1"/>
    <edge id="-426849221#0"/>
    <edge id="426849225#0"/>
    <edge id="260513911#1"/>
    <edge id="742441840#1"/>
    <edge id="-742441840#0"/>
    <edge id="-426849224#2"/>
    <edge id="426849229"/>
    <edge id="479818849"/>
    <edge id="893179852"/>
    <edge id="893179837#4"/>
    <edge id="-1166062488#1"/>
    <edge id="-893179837#3"/>
    <edge id="893179850#0"/>
    <edge id="-1166062486#0"/>
    <edge id="1166062486#1"/>
    <edge id="142032173#4"/>
    <edge id="1165805332#0"/>
    <edge id="-142032173#3"/>
    <edge id="91658186#3"/>
    <edge id="91658181#1"/>
    <edge id="-91658186#2"/>
    <edge id="-91658181#0"/>
    <edge id="437451397"/>
    <edge id="437451396#1"/>
    <edge id="-437451396#0"/>
    <edge id="-91658190#2"/>
    <edge id="91658184"/>
    <edge id="-91658197#0"/>
    <edge id="91658197#1"/>
    <edge id="437397346#2"/>
    <edge id="-437397346#1"/>
    <edge id="1165469169"/>
    <edge id="437397346#1"/>
    <edge id="-437397346#0"/>
    <edge id="-437397349"/>
    <edge id="437397346#0"/>
    <edge id="679523227#6"/>
    <edge id="-679523227#5"/>
    <edge id="91658176#8"/>
    <edge id="-91658176#7"/>
    <edge id="481558794"/>
    <edge id="-645717971"/>
    <edge id="142032172#5"/>
    <edge id="-142032184#0"/>
    <edge id="-142032172#4"/>
    <edge id="142032184#1"/>
    <edge id="142032172#4"/>
    <edge id="142032180"/>
    <edge id="-142032172#3"/>
    <edge id="-91658178#2"/>
    <edge id="142032175"/>
    <edge id="-479818844#1"/>
    <edge id="-409850169#1"/>
    <edge id="-893179857"/>
    <edge id="-893179850#1"/>
    <edge id="-893179837#4"/>
    <edge id="893179837#5"/>
    <edge id="479818834"/>
    <edge id="688204148#2"/>
    <edge id="893179868#0"/>
    <edge id="893179869"/>
    <edge id="-893179868#0"/>
    <edge id="893179868#1"/>
    <edge id="-1167170437#0"/>
    <edge id="1167170437#1"/>
    <edge id="479818859#1"/>
    <edge id="-479818859#0"/>
    <edge id="-479818860#1"/>
    <edge id="6506869#1"/>
    <edge id="428056583#1"/>
    <edge id="426849221#2"/>
    <edge id="-742441840#1"/>
    <edge id="-426849221#1"/>
    <edge id="-426849221#3"/>
    <edge id="426849222"/>
    <edge id="893179850#1"/>
    <edge id="-1166062488#0"/>
    <edge id="-893179850#0"/>
    <edge id="1166062488#1"/>
    <edge id="91658186#4"/>
    <edge id="1165805332#1"/>
    <edge id="-91658186#3"/>
    <edge id="-1165805332#0"/>
    <edge id="-91658181#1"/>
    <edge id="-437451397"/>
    <edge id="91658183#4"/>
    <edge id="-91658183#3"/>
    <edge id="-91658184"/>
    <edge id="91658183#3"/>
    <edge id="-91658183#2"/>
    <edge id="91658197#0"/>
    <edge id="-437397345"/>
    <edge id="437397346#3"/>
    <edge id="-437397346#2"/>
    <edge id="-893179859"/>
    <edge id="679523227#7"/>
    <edge id="-679523227#6"/>
    <edge id="736992264"/>
    <edge id="91658176#9"/>
    <edge id="-91658176#8"/>
    <edge id="-142032172#5"/>
    <edge id="142032184#0"/>
    <edge id="-142032181#6"/>
    <edge id="-91658178#1"/>
    <edge id="91658178#2"/>
    <edge id="142032185#0"/>
    <edge id="-479818844#0"/>
    <edge id="-409850169#0"/>
    <edge id="91658194#0"/>
    <edge id="481558799"/>
    <edge id="688204148#3"/>
    <edge id="893179868#2"/>
    <edge id="893179871"/>
    <edge id="-893179868#1"/>
    <edge id="893179866"/>
    <edge id="1167172362#4"/>
    <edge id="1167170437#0"/>
    <edge id="479818859#0"/>
    <edge id="-479818859#1"/>
    <edge id="566392439#0"/>
    <edge id="6506869#2"/>
    <edge id="426849226#0"/>
    <edge id="426849221#3"/>
    <edge id="-426849221#2"/>
    <edge id="-1165805332#1"/>
    <edge id="-91658183#4"/>
    <edge id="1166128213#0"/>
    <edge id="-91658183#1"/>
    <edge id="437397345"/>
    <edge id="91658183#2"/>
    <edge id="437400576"/>
    <edge id="437397346#4"/>
    <edge id="-437397346#3"/>
    <edge id="-437397346#5"/>
    <edge id="437397346#6"/>
    <edge id="893179859"/>
    <edge id="91658192#0"/>
    <edge id="679523227#8"/>
    <edge id="-679523227#7"/>
    <edge id="-736992264"/>
    <edge id="-91658176#12"/>
    <edge id="-142032181#5"/>
    <edge id="-142032179"/>
    <edge id="142032181#6"/>
    <edge id="645178506"/>
    <edge id="-91658178#0"/>
    <edge id="91658178#1"/>
    <edge id="88641503#0"/>
    <edge id="-737726519"/>
    <edge id="428056967#0"/>
    <edge id="479818844#0"/>
    <edge id="364971817#0"/>
    <edge id="-621671546#1"/>
    <edge id="409850169#0"/>
    <edge id="91658183#0"/>
    <edge id="91658194#1"/>
    <edge id="53221737"/>
    <edge id="893179865"/>
    <edge id="-893179868#2"/>
    <edge id="1167172362#1"/>
    <edge id="-566392439#3"/>
    <edge id="566392439#1"/>
    <edge id="-566392439#0"/>
    <edge id="-910335278"/>
    <edge id="6506869#3"/>
    <edge id="426849226#1"/>
    <edge id="426849227"/>
    <edge id="-426849226#0"/>
    <edge id="1166128213#1"/>
    <edge id="1166128214"/>
    <edge id="-1166128213#0"/>
    <edge id="364971809#4"/>
    <edge id="-91658183#0"/>
    <edge id="-364971809#3"/>
    <edge id="91658183#1"/>
    <edge id="364971809#1"/>
    <edge id="-364971809#0"/>
    <edge id="-437400576"/>
    <edge id="364971809#0"/>
    <edge id="437397346#5"/>
    <edge id="-437397346#4"/>
    <edge id="768016662"/>
    <edge id="-91658192#0"/>
    <edge id="91658192#1"/>
    <edge id="736992261"/>
    <edge id="679523227#9"/>
    <edge id="-679523227#8"/>
    <edge id="481558797"/>
    <edge id="-142032181#4"/>
    <edge id="142032181#5"/>
    <edge id="142032179"/>
    <edge id="-645178506"/>
    <edge id="91658178#0"/>
    <edge id="88641503#1"/>
    <edge id="-88641503#0"/>
    <edge id="-428056581"/>
    <edge id="737726519"/>
    <edge id="428056967#1"/>
    <edge id="479818844#1"/>
    <edge id="364971817#1"/>
    <edge id="-621671546#0"/>
    <edge id="409850169#1"/>
    <edge id="409850169#2"/>
    <edge id="447574324"/>
    <edge id="484669424"/>
    <edge id="1167172362#2"/>
    <edge id="-566392439#2"/>
    <edge id="-566392438"/>
    <edge id="566392439#3"/>
    <edge id="566392438"/>
    <edge id="566392439#2"/>
    <edge id="-566392439#1"/>
    <edge id="-6506869#1"/>
    <edge id="-467472897#1"/>
    <edge id="467472897#2"/>
    <edge id="910335278"/>
    <edge id="-467472897#2"/>
    <edge id="6506869#4"/>
    <edge id="436923705#0"/>
    <edge id="-426849227"/>
    <edge id="1166128213#2"/>
    <edge id="-1166128214"/>
    <edge id="-1166128213#1"/>
    <edge id="893179858#0"/>
    <edge id="1166203562#0"/>
    <edge id="-364971809#2"/>
    <edge id="364971809#3"/>
    <edge id="364971809#2"/>
    <edge id="-1166203562#2"/>
    <edge id="-364971809#1"/>
    <edge id="-768016662"/>
    <edge id="-736992261"/>
    <edge id="496163563"/>
    <edge id="91658187#1"/>
    <edge id="-91658187#0"/>
    <edge id="-88641503#1"/>
    <edge id="88641503#2"/>
    <edge id="-481558798"/>
    <edge id="-142032181#3"/>
    <edge id="786438206"/>
    <edge id="142032181#4"/>
    <edge id="-353714433"/>
    <edge id="738643184"/>
    <edge id="-428056967#1"/>
    <edge id="421771939"/>
    <edge id="364971813"/>
    <edge id="6377617"/>
    <edge id="-364971810"/>
    <edge id="-755280444#1"/>
    <edge id="621671546#0"/>
    <edge id="688204148#0"/>
    <edge id="-484669424"/>
    <edge id="-484669425"/>
    <edge id="1167172362#3"/>
    <edge id="-6506869#0"/>
    <edge id="566392437#0"/>
    <edge id="-467472897#0"/>
    <edge id="467472897#1"/>
    <edge id="-6506869#3"/>
    <edge id="-6506869#2"/>
    <edge id="466945946#0"/>
    <edge id="6506869#5"/>
    <edge id="436923705#1"/>
    <edge id="566392541#0"/>
    <edge id="-436923705#0"/>
    <edge id="-1166128213#2"/>
    <edge id="893179858#1"/>
    <edge id="1166203563"/>
    <edge id="1166203562#1"/>
    <edge id="-1166203562#0"/>
    <edge id="-1166203562#1"/>
    <edge id="-1166203563"/>
    <edge id="1166203562#2"/>
    <edge id="-6523310#3"/>
    <edge id="496163562"/>
    <edge id="91658187#2"/>
    <edge id="-91658187#1"/>
    <edge id="-142032182#0"/>
    <edge id="457629154"/>
    <edge id="142032182#1"/>
    <edge id="-88641503#2"/>
    <edge id="142032181#0"/>
    <edge id="-786438206"/>
    <edge id="353714433"/>
    <edge id="428292146#0"/>
    <edge id="-428056967#0"/>
    <edge id="-1118845772"/>
    <edge id="-6377617"/>
    <edge id="364971811"/>
    <edge id="364971810"/>
    <edge id="-755280444#0"/>
    <edge id="755280444#1"/>
    <edge id="621671546#1"/>
    <edge id="688204148#1"/>
    <edge id="484669425"/>
    <edge id="566392437#1"/>
    <edge id="566392436"/>
    <edge id="-566392437#0"/>
    <edge id="466945946#2"/>
    <edge id="-466945946#1"/>
    <edge id="467472897#0"/>
    <edge id="1315518960"/>
    <edge id="466945946#1"/>
    <edge id="-466945946#0"/>
    <edge id="-566392487#3"/>
    <edge id="6506869#6"/>
    <edge id="-6506869#7"/>
    <edge id="-1366114868#6"/>
    <edge id="-436923705#1"/>
    <edge id="-566392541#2"/>
    <edge id="566392541#1"/>
    <edge id="-566392541#0"/>
    <edge id="-426849226#1"/>
    <edge id="893179858#2"/>
    <edge id="1165472253"/>
    <edge id="-6523310#2"/>
    <edge id="-426855974#1"/>
    <edge id="481592459#0"/>
    <edge id="91658187#3"/>
    <edge id="-91658187#2"/>
    <edge id="481558796"/>
    <edge id="457629155#0"/>
    <edge id="985542352#1"/>
    <edge id="-457629155#3"/>
    <edge id="-985542352#0"/>
    <edge id="-142032182#1"/>
    <edge id="428056581"/>
    <edge id="6413453#0"/>
    <edge id="428292146#1"/>
    <edge id="-428292146#0"/>
    <edge id="-1118845855"/>
    <edge id="1118845774"/>
    <edge id="-985539430"/>
    <edge id="364971816"/>
    <edge id="755280444#0"/>
    <edge id="-566392437#1"/>
    <edge id="-465458405#1"/>
    <edge id="465458405#2"/>
    <edge id="-566392436"/>
    <edge id="466945946#3"/>
    <edge id="-566392488#1"/>
    <edge id="-466945946#2"/>
    <edge id="-1315518960"/>
    <edge id="-6506869#4"/>
    <edge id="-566392487#2"/>
    <edge id="-1315518959"/>
    <edge id="566392487#3"/>
    <edge id="566392486#0"/>
    <edge id="6506869#7"/>
    <edge id="-6506869#6"/>
    <edge id="566392487#0"/>
    <edge id="-1366114868#5"/>
    <edge id="-566392541#1"/>
    <edge id="566392541#2"/>
    <edge id="893179858#3"/>
    <edge id="-6523310#1"/>
    <edge id="426855968"/>
    <edge id="426855976"/>
    <edge id="-426855974#0"/>
    <edge id="426855974#1"/>
    <edge id="481592459#1"/>
    <edge id="-566395673#2"/>
    <edge id="-481592459#0"/>
    <edge id="91658182"/>
    <edge id="91658187#4"/>
    <edge id="-91658187#3"/>
    <edge id="457629155#1"/>
    <edge id="-985542352#1"/>
    <edge id="-457629155#0"/>
    <edge id="-457629155#2"/>
    <edge id="-457629156"/>
    <edge id="457629155#3"/>
    <edge id="481592466"/>
    <edge id="6413453#1"/>
    <edge id="428292147"/>
    <edge id="-738643184"/>
    <edge id="-364971814#1"/>
    <edge id="1118845855"/>
    <edge id="6317703"/>
    <edge id="-364971808"/>
    <edge id="-1118845774"/>
    <edge id="-357254921"/>
    <edge id="985539430"/>
    <edge id="985539428"/>
    <edge id="-364971816"/>
    <edge id="-566392435#1"/>
    <edge id="-465458405#0"/>
    <edge id="465458405#1"/>
    <edge id="-6512716#3"/>
    <edge id="566392490#0"/>
    <edge id="6512716#4"/>
    <edge id="-465458405#2"/>
    <edge id="-6512716#4"/>
    <edge id="6512716#5"/>
    <edge id="-466945946#3"/>
    <edge id="566392483"/>
    <edge id="-566392488#0"/>
    <edge id="566392488#1"/>
    <edge id="-566392487#1"/>
    <edge id="-566392484"/>
    <edge id="566392487#2"/>
    <edge id="566392486#1"/>
    <edge id="-566392486#0"/>
    <edge id="1315518959"/>
    <edge id="-6506869#5"/>
    <edge id="-566392486#1"/>
    <edge id="566392485"/>
    <edge id="566392487#1"/>
    <edge id="-566392487#0"/>
    <edge id="-1366114868#4"/>
    <edge id="566392543#0"/>
    <edge id="893179858#4"/>
    <edge id="1165472252"/>
    <edge id="-6523310#0"/>
    <edge id="883110357"/>
    <edge id="-426855968"/>
    <edge id="-426855976"/>
    <edge id="426855973#1"/>
    <edge id="426855974#0"/>
    <edge id="6523310#3"/>
    <edge id="-567213150#1"/>
    <edge id="566395673#0"/>
    <edge id="-481592459#1"/>
    <edge id="893179872"/>
    <edge id="-566395673#1"/>
    <edge id="566395673#2"/>
    <edge id="91658189#0"/>
    <edge id="893179875"/>
    <edge id="91658187#5"/>
    <edge id="-91658187#4"/>
    <edge id="457629156"/>
    <edge id="457629155#2"/>
    <edge id="-457629155#1"/>
    <edge id="738643183"/>
    <edge id="-6413453#1"/>
    <edge id="428056966"/>
    <edge id="6448840#0"/>
    <edge id="-428292147"/>
    <edge id="-364971814#0"/>
    <edge id="1118845772"/>
    <edge id="805171451"/>
    <edge id="-1201636573"/>
    <edge id="364971808"/>