<routes>
  <vType id="luggage_tug" accel="1.0" decel="4.5" sigma="0.5" length="3.0" maxSpeed="10" vClass="truck"/>
</routes>
