<?xml version="1.0" encoding="UTF-8"?>

<!-- generated on 2025-04-10 12:49:39 by Eclipse SUMO netconvert Version 1.22.0
<netconvertConfiguration xmlns:xsi="http://www.w3.org/2001/XMLSchema-instance" xsi:noNamespaceSchemaLocation="http://sumo.dlr.de/xsd/netconvertConfiguration.xsd">

    <input>
        <osm-files value="airport_reduced.osm"/>
    </input>

    <output>
        <output-file value="airport_reduced.net.xml"/>
    </output>

    <projection>
        <proj.utm value="true"/>
    </projection>

</netconvertConfiguration>
-->

<net version="1.20" junctionCornerDetail="5" limitTurnSpeed="5.50" xmlns:xsi="http://www.w3.org/2001/XMLSchema-instance" xsi:noNamespaceSchemaLocation="http://sumo.dlr.de/xsd/net_file.xsd">

    <location netOffset="-551303.68,-5252971.58" convBoundary="0.00,0.00,1935.57,4281.88" origBoundary="-122.319679,47.428102,-122.293946,47.466640" projParameter="+proj=utm +zone=10 +ellps=WGS84 +datum=WGS84 +units=m +no_defs"/>

    <type id="highway.service" priority="1" numLanes="1" speed="5.56" allow="pedestrian delivery bicycle" oneway="0"/>
    <type id="highway.unclassified" priority="4" numLanes="1" speed="13.89" disallow="tram rail_urban rail rail_electric rail_fast ship container cable_car subway aircraft wheelchair scooter drone" oneway="0"/>

    <edge id=":10232590563_0" function="internal">
        <lane id=":10232590563_0_0" index="0" disallow="tram rail_urban rail rail_electric rail_fast ship container cable_car subway aircraft wheelchair scooter drone" speed="13.89" length="8.41" shape="1486.21,2460.64 1486.59,2463.13 1487.61,2464.73 1488.62,2466.32 1488.98,2468.81"/>
        <lane id=":10232590563_0_1" index="1" disallow="tram rail_urban rail rail_electric rail_fast ship container cable_car subway aircraft wheelchair scooter drone" speed="13.89" length="8.41" shape="1486.21,2460.64 1485.79,2468.63"/>
    </edge>
    <edge id=":10232590563_2" function="internal">
        <lane id=":10232590563_2_0" index="0" disallow="tram rail_urban rail rail_electric rail_fast ship container cable_car subway aircraft wheelchair scooter drone" speed="13.89" length="7.98" shape="1482.59,2468.45 1483.01,2460.48"/>
    </edge>
    <edge id=":10240294412_0" function="internal">
        <lane id=":10240294412_0_0" index="0" disallow="tram rail_urban rail rail_electric rail_fast ship container cable_car subway aircraft wheelchair scooter drone" speed="8.94" length="8.21" shape="1462.10,1601.42 1463.63,1599.55 1464.38,1598.03 1465.12,1596.51 1466.65,1594.64"/>
        <lane id=":10240294412_0_1" index="1" disallow="tram rail_urban rail rail_electric rail_fast ship container cable_car subway aircraft wheelchair scooter drone" speed="8.94" length="8.21" shape="1464.36,1603.69 1465.88,1601.82 1466.63,1600.30 1467.38,1598.78 1468.90,1596.91"/>
        <lane id=":10240294412_0_2" index="2" disallow="tram rail_urban rail rail_electric rail_fast ship container cable_car subway aircraft wheelchair scooter drone" speed="8.94" length="8.21" shape="1466.61,1605.96 1468.14,1604.09 1468.89,1602.57 1469.64,1601.05 1471.16,1599.18"/>
        <lane id=":10240294412_0_3" index="3" disallow="tram rail_urban rail rail_electric rail_fast ship container cable_car subway aircraft wheelchair scooter drone" speed="8.94" length="8.21" shape="1468.87,1608.23 1470.39,1606.36 1471.14,1604.84 1471.89,1603.32 1473.42,1601.45"/>
    </edge>
    <edge id=":10240294413_0" function="internal">
        <lane id=":10240294413_0_0" index="0" disallow="tram rail_urban rail rail_electric rail_fast ship container cable_car subway aircraft wheelchair scooter drone" speed="8.94" length="8.29" shape="1431.06,1827.29 1429.04,1825.89 1427.21,1825.58 1425.37,1825.28 1423.30,1823.93"/>
        <lane id=":10240294413_0_1" index="1" disallow="tram rail_urban rail rail_electric rail_fast ship container cable_car subway aircraft wheelchair scooter drone" speed="8.94" length="8.29" shape="1431.06,1827.29 1425.56,1821.66"/>
        <lane id=":10240294413_0_2" index="2" disallow="tram rail_urban rail rail_electric rail_fast ship container cable_car subway aircraft wheelchair scooter drone" speed="8.94" length="8.29" shape="1433.38,1825.09 1427.82,1819.39"/>
        <lane id=":10240294413_0_3" index="3" disallow="tram rail_urban rail rail_electric rail_fast ship container cable_car subway aircraft wheelchair scooter drone" speed="8.94" length="8.29" shape="1435.70,1822.88 1430.08,1817.13"/>
        <lane id=":10240294413_0_4" index="4" disallow="tram rail_urban rail rail_electric rail_fast ship container cable_car subway aircraft wheelchair scooter drone" speed="8.94" length="8.29" shape="1435.70,1822.88 1434.35,1820.73 1434.05,1818.84 1433.74,1816.97 1432.34,1814.86"/>
    </edge>
    <edge id=":10288950508_0" function="internal">
        <lane id=":10288950508_0_0" index="0" disallow="tram rail_urban rail rail_electric rail_fast ship container cable_car subway aircraft wheelchair scooter drone" speed="13.89" length="0.31" shape="1488.45,2498.41 1488.45,2498.75"/>
        <lane id=":10288950508_0_1" index="1" disallow="tram rail_urban rail rail_electric rail_fast ship container cable_car subway aircraft wheelchair scooter drone" speed="13.89" length="0.31" shape="1485.25,2498.47 1485.25,2498.75"/>
    </edge>
    <edge id=":10288950508_2" function="internal">
        <lane id=":10288950508_2_0" index="0" disallow="tram rail_urban rail rail_electric rail_fast ship container cable_car subway aircraft wheelchair scooter drone" speed="13.89" length="0.22" shape="1482.05,2498.74 1482.05,2498.52"/>
    </edge>
    <edge id=":1029267976_0" function="internal">
        <lane id=":1029267976_0_0" index="0" allow="bicycle" speed="3.65" length="4.67" shape="22.34,1749.54 21.54,1750.73 20.74,1751.13 19.94,1750.73 19.14,1749.53"/>
    </edge>
    <edge id=":1029268075_0" function="internal">
        <lane id=":1029268075_0_0" index="0" allow="pedestrian delivery bicycle" speed="5.56" length="5.63" shape="285.02,1061.00 284.65,1059.33 283.99,1058.10 283.04,1057.31 281.80,1056.95"/>
    </edge>
    <edge id=":1029268075_1" function="internal">
        <lane id=":1029268075_1_0" index="0" allow="pedestrian delivery bicycle" speed="5.56" length="12.14" shape="285.02,1061.00 284.81,1057.71 285.09,1054.97 285.85,1052.30 287.10,1049.23"/>
    </edge>
    <edge id=":1029268075_2" function="internal">
        <lane id=":1029268075_2_0" index="0" allow="pedestrian delivery bicycle" speed="5.56" length="11.81" shape="285.02,1061.00 285.17,1058.01 286.46,1055.87 288.87,1054.57 292.42,1054.10"/>
    </edge>
    <edge id=":1029268075_3" function="internal">
        <lane id=":1029268075_3_0" index="0" allow="pedestrian delivery bicycle" speed="3.65" length="4.67" shape="285.02,1061.00 285.67,1059.71 286.41,1059.22 287.26,1059.52 288.19,1060.61"/>
    </edge>
    <edge id=":1029268075_4" function="internal">
        <lane id=":1029268075_4_0" index="0" allow="pedestrian delivery bicycle" speed="5.35" length="6.25" shape="292.46,1057.30 290.44,1057.53 289.06,1058.15 288.31,1059.18 288.19,1060.61"/>
    </edge>
    <edge id=":1029268075_5" function="internal">
        <lane id=":1029268075_5_0" index="0" allow="pedestrian delivery bicycle" speed="5.56" length="10.67" shape="292.46,1057.30 289.38,1057.34 287.12,1057.34 284.86,1057.23 281.80,1056.95"/>
    </edge>
    <edge id=":1029268075_6" function="internal">
        <lane id=":1029268075_6_0" index="0" allow="pedestrian delivery bicycle" speed="5.56" length="12.60" shape="292.46,1057.30 288.78,1056.83 286.66,1055.33 286.10,1052.80 287.10,1049.23"/>
    </edge>
    <edge id=":1029268075_7" function="internal">
        <lane id=":1029268075_7_0" index="0" allow="pedestrian delivery bicycle" speed="3.65" length="4.67" shape="292.46,1057.30 291.25,1056.52 290.84,1055.72 291.23,1054.92 292.42,1054.10"/>
    </edge>
    <edge id=":1029268075_8" function="internal">
        <lane id=":1029268075_8_0" index="0" allow="pedestrian delivery bicycle" speed="4.72" length="5.62" shape="290.04,1050.50 289.59,1052.09 289.84,1053.22 290.78,1053.89 292.42,1054.10"/>
    </edge>
    <edge id=":1029268075_9" function="internal">
        <lane id=":1029268075_9_0" index="0" allow="pedestrian delivery bicycle" speed="5.56" length="10.49" shape="290.04,1050.50 288.82,1053.32 288.14,1055.42 287.95,1057.58 288.19,1060.61"/>
    </edge>
    <edge id=":1029268075_10" function="internal">
        <lane id=":1029268075_10_0" index="0" allow="pedestrian delivery bicycle" speed="5.56" length="11.22" shape="290.04,1050.50 288.38,1053.52 286.46,1055.60 284.26,1056.74 281.80,1056.95"/>
    </edge>
    <edge id=":1029268075_11" function="internal">
        <lane id=":1029268075_11_0" index="0" allow="pedestrian delivery bicycle" speed="3.65" length="4.67" shape="290.04,1050.50 288.82,1051.29 287.93,1051.33 287.36,1050.65 287.10,1049.23"/>
    </edge>
    <edge id=":1029268075_12" function="internal">
        <lane id=":1029268075_12_0" index="0" allow="pedestrian delivery bicycle" speed="5.56" length="7.17" shape="282.13,1053.76 283.52,1053.59 284.81,1052.78 286.00,1051.32 287.10,1049.23"/>
    </edge>
    <edge id=":1029268075_13" function="internal">
        <lane id=":1029268075_13_0" index="0" allow="pedestrian delivery bicycle" speed="5.56" length="10.31" shape="282.13,1053.76 285.13,1054.04 287.26,1054.15 289.40,1054.14 292.42,1054.10"/>
    </edge>
    <edge id=":1029268075_14" function="internal">
        <lane id=":1029268075_14_0" index="0" allow="pedestrian delivery bicycle" speed="5.56" length="9.98" shape="282.13,1053.76 284.50,1054.40 286.30,1055.75 287.53,1057.82 288.19,1060.61"/>
    </edge>
    <edge id=":1029268075_15" function="internal">
        <lane id=":1029268075_15_0" index="0" allow="pedestrian delivery bicycle" speed="3.65" length="4.67" shape="282.13,1053.76 283.24,1054.68 283.56,1055.52 283.08,1056.27 281.80,1056.95"/>
    </edge>
    <edge id=":1029268160_0" function="internal">
        <lane id=":1029268160_0_0" index="0" allow="pedestrian delivery bicycle" speed="5.06" length="4.98" shape="210.17,1041.48 208.86,1041.13 207.74,1041.29 206.82,1041.95 206.10,1043.10"/>
    </edge>
    <edge id=":1029268160_1" function="internal">
        <lane id=":1029268160_1_0" index="0" allow="pedestrian delivery bicycle" speed="5.56" length="9.18" shape="210.17,1041.48 207.67,1040.42 205.97,1039.63 204.33,1038.74 202.00,1037.34"/>
    </edge>
    <edge id=":1029268160_2" function="internal">
        <lane id=":1029268160_2_0" index="0" allow="pedestrian delivery bicycle" speed="3.65" length="4.67" shape="210.17,1041.48 209.38,1040.28 209.32,1039.39 210.00,1038.80 211.42,1038.53"/>
    </edge>
    <edge id=":1029268160_3" function="internal">
        <lane id=":1029268160_3_0" index="0" allow="pedestrian delivery bicycle" speed="5.56" length="8.71" shape="203.66,1034.60 205.88,1035.93 207.43,1036.78 209.04,1037.52 211.42,1038.53"/>
    </edge>
    <edge id=":1029268160_4" function="internal">
        <lane id=":1029268160_4_0" index="0" allow="pedestrian delivery bicycle" speed="5.56" length="9.82" shape="203.66,1034.60 205.64,1036.24 206.71,1038.21 206.86,1040.49 206.10,1043.10"/>
    </edge>
    <edge id=":1029268160_5" function="internal">
        <lane id=":1029268160_5_0" index="0" allow="pedestrian delivery bicycle" speed="3.65" length="4.67" shape="203.66,1034.60 204.27,1035.91 204.20,1036.80 203.44,1037.28 202.00,1037.34"/>
    </edge>
    <edge id=":1029268160_6" function="internal">
        <lane id=":1029268160_6_0" index="0" allow="pedestrian delivery bicycle" speed="5.33" length="5.14" shape="203.17,1041.82 203.59,1040.42 203.53,1039.21 203.00,1038.18 202.00,1037.34"/>
    </edge>
    <edge id=":1029268160_7" function="internal">
        <lane id=":1029268160_7_0" index="0" allow="pedestrian delivery bicycle" speed="5.56" length="10.09" shape="203.17,1041.82 204.63,1039.47 206.48,1038.14 208.75,1037.83 211.42,1038.53"/>
    </edge>
    <edge id=":1029268160_8" function="internal">
        <lane id=":1029268160_8_0" index="0" allow="pedestrian delivery bicycle" speed="3.65" length="4.67" shape="203.17,1041.82 204.39,1041.04 205.28,1041.00 205.85,1041.68 206.10,1043.10"/>
    </edge>
    <edge id=":1029990474_0" function="internal">
        <lane id=":1029990474_0_0" index="0" disallow="tram rail_urban rail rail_electric rail_fast ship container cable_car subway aircraft wheelchair scooter drone" speed="3.65" length="4.67" shape="1621.24,327.78 1622.45,328.56 1622.86,329.35 1622.47,330.16 1621.28,330.98"/>
    </edge>
    <edge id=":1065030373_0" function="internal">
        <lane id=":1065030373_0_0" index="0" allow="bicycle" speed="5.56" length="0.30" shape="1530.97,2217.58 1530.96,2217.28"/>
    </edge>
    <edge id=":1065030373_1" function="internal">
        <lane id=":1065030373_1_0" index="0" allow="delivery bicycle" speed="3.65" length="2.33" shape="1530.97,2217.58 1531.70,2216.33 1532.47,2215.88"/>
    </edge>
    <edge id=":1065030373_3" function="internal">
        <lane id=":1065030373_3_0" index="0" allow="delivery bicycle" speed="3.65" length="2.33" shape="1532.47,2215.88 1533.29,2216.23 1534.16,2217.38"/>
    </edge>
    <edge id=":1065030373_2" function="internal">
        <lane id=":1065030373_2_0" index="0" allow="bicycle" speed="5.56" length="0.10" shape="1534.16,2217.32 1534.16,2217.38"/>
    </edge>
    <edge id=":1065030382_0" function="internal">
        <lane id=":1065030382_0_0" index="0" allow="bicycle" speed="5.08" length="5.07" shape="1444.47,1389.20 1443.37,1388.36 1442.27,1388.07 1441.15,1388.33 1440.01,1389.15"/>
    </edge>
    <edge id=":1065030382_1" function="internal">
        <lane id=":1065030382_1_0" index="0" allow="bicycle" speed="5.56" length="9.44" shape="1444.47,1389.20 1437.87,1382.45"/>
    </edge>
    <edge id=":1065030382_2" function="internal">
        <lane id=":1065030382_2_0" index="0" allow="bicycle" speed="5.56" length="10.16" shape="1444.47,1389.20 1442.83,1386.95 1442.30,1384.71 1442.89,1382.49 1444.59,1380.29"/>
    </edge>
    <edge id=":1065030382_3" function="internal">
        <lane id=":1065030382_3_0" index="0" allow="bicycle" speed="3.65" length="4.67" shape="1444.47,1389.20 1444.20,1387.78 1444.50,1386.94 1445.35,1386.67 1446.76,1386.97"/>
    </edge>
    <edge id=":1065030382_4" function="internal">
        <lane id=":1065030382_4_0" index="0" allow="bicycle" speed="5.04" length="5.00" shape="1446.82,1382.58 1445.98,1383.67 1445.69,1384.76 1445.95,1385.86 1446.76,1386.97"/>
    </edge>
    <edge id=":1065030382_5" function="internal">
        <lane id=":1065030382_5_0" index="0" allow="bicycle" speed="5.56" length="9.46" shape="1446.82,1382.58 1440.01,1389.15"/>
    </edge>
    <edge id=":1065030382_6" function="internal">
        <lane id=":1065030382_6_0" index="0" allow="bicycle" speed="5.56" length="10.20" shape="1446.82,1382.58 1444.57,1384.22 1442.33,1384.74 1440.09,1384.15 1437.87,1382.45"/>
    </edge>
    <edge id=":1065030382_7" function="internal">
        <lane id=":1065030382_7_0" index="0" allow="bicycle" speed="3.65" length="4.67" shape="1446.82,1382.58 1445.40,1382.85 1444.56,1382.55 1444.29,1381.70 1444.59,1380.29"/>
    </edge>
    <edge id=":1065030382_8" function="internal">
        <lane id=":1065030382_8_0" index="0" allow="bicycle" speed="5.07" length="5.05" shape="1440.16,1380.21 1441.26,1381.06 1442.37,1381.35 1443.48,1381.10 1444.59,1380.29"/>
    </edge>
    <edge id=":1065030382_9" function="internal">
        <lane id=":1065030382_9_0" index="0" allow="bicycle" speed="5.56" length="9.45" shape="1440.16,1380.21 1446.76,1386.97"/>
    </edge>
    <edge id=":1065030382_10" function="internal">
        <lane id=":1065030382_10_0" index="0" allow="bicycle" speed="5.56" length="10.22" shape="1440.16,1380.21 1441.82,1382.47 1442.35,1384.71 1441.75,1386.94 1440.01,1389.15"/>
    </edge>
    <edge id=":1065030382_11" function="internal">
        <lane id=":1065030382_11_0" index="0" allow="bicycle" speed="3.65" length="4.67" shape="1440.16,1380.21 1440.42,1381.63 1440.13,1382.47 1439.28,1382.75 1437.87,1382.45"/>
    </edge>
    <edge id=":1065030382_12" function="internal">
        <lane id=":1065030382_12_0" index="0" allow="bicycle" speed="5.03" length="5.02" shape="1437.80,1386.84 1438.65,1385.75 1438.95,1384.66 1438.69,1383.56 1437.87,1382.45"/>
    </edge>
    <edge id=":1065030382_13" function="internal">
        <lane id=":1065030382_13_0" index="0" allow="bicycle" speed="5.56" length="9.43" shape="1437.80,1386.84 1444.59,1380.29"/>
    </edge>
    <edge id=":1065030382_14" function="internal">
        <lane id=":1065030382_14_0" index="0" allow="bicycle" speed="5.56" length="10.20" shape="1437.80,1386.84 1440.08,1385.20 1442.33,1384.68 1444.56,1385.27 1446.76,1386.97"/>
    </edge>
    <edge id=":1065030382_15" function="internal">
        <lane id=":1065030382_15_0" index="0" allow="bicycle" speed="3.65" length="4.67" shape="1437.80,1386.84 1439.22,1386.58 1440.06,1386.89 1440.33,1387.74 1440.01,1389.15"/>
    </edge>
    <edge id=":1065030388_0" function="internal">
        <lane id=":1065030388_0_0" index="0" allow="bicycle" speed="5.04" length="5.00" shape="1102.34,1056.48 1100.98,1056.67 1100.01,1057.24 1099.43,1058.21 1099.23,1059.56"/>
    </edge>
    <edge id=":1065030388_1" function="internal">
        <lane id=":1065030388_1_0" index="0" allow="bicycle" speed="5.56" length="10.16" shape="1102.34,1056.48 1099.59,1056.07 1097.62,1054.88 1096.45,1052.91 1096.06,1050.16"/>
    </edge>
    <edge id=":1065030388_2" function="internal">
        <lane id=":1065030388_2_0" index="0" allow="bicycle" speed="3.65" length="4.67" shape="1102.34,1056.48 1101.15,1055.67 1100.75,1054.87 1101.16,1054.07 1102.36,1053.28"/>
    </edge>
    <edge id=":1065030388_3" function="internal">
        <lane id=":1065030388_3_0" index="0" allow="bicycle" speed="5.05" length="5.01" shape="1099.26,1050.17 1099.45,1051.52 1100.03,1052.49 1101.00,1053.08 1102.36,1053.28"/>
    </edge>
    <edge id=":1065030388_4" function="internal">
        <lane id=":1065030388_4_0" index="0" allow="bicycle" speed="5.56" length="9.40" shape="1099.26,1050.17 1099.23,1059.56"/>
    </edge>
    <edge id=":1065030388_5" function="internal">
        <lane id=":1065030388_5_0" index="0" allow="bicycle" speed="3.65" length="4.67" shape="1099.26,1050.17 1098.46,1051.36 1097.66,1051.76 1096.86,1051.36 1096.06,1050.16"/>
    </edge>
    <edge id=":1065030388_6" function="internal">
        <lane id=":1065030388_6_0" index="0" allow="bicycle" speed="5.56" length="9.39" shape="1096.03,1059.55 1096.06,1050.16"/>
    </edge>
    <edge id=":1065030388_7" function="internal">
        <lane id=":1065030388_7_0" index="0" allow="bicycle" speed="5.56" length="10.17" shape="1096.03,1059.55 1096.43,1056.79 1097.62,1054.83 1099.60,1053.66 1102.36,1053.28"/>
    </edge>
    <edge id=":1065030388_8" function="internal">
        <lane id=":1065030388_8_0" index="0" allow="bicycle" speed="3.65" length="4.67" shape="1096.03,1059.55 1096.83,1058.35 1097.63,1057.96 1098.43,1058.36 1099.23,1059.56"/>
    </edge>
    <edge id=":1065030401_0" function="internal">
        <lane id=":1065030401_0_0" index="0" allow="bicycle" speed="4.87" length="5.23" shape="1330.66,1422.33 1329.19,1422.26 1328.13,1422.70 1327.49,1423.64 1327.26,1425.10"/>
    </edge>
    <edge id=":1065030401_1" function="internal">
        <lane id=":1065030401_1_0" index="0" allow="bicycle" speed="5.56" length="9.46" shape="1330.66,1422.33 1321.40,1420.37"/>
    </edge>
    <edge id=":1065030401_2" function="internal">
        <lane id=":1065030401_2_0" index="0" allow="bicycle" speed="3.65" length="4.67" shape="1330.66,1422.33 1329.63,1421.32 1329.39,1420.46 1329.94,1419.75 1331.27,1419.19"/>
    </edge>
    <edge id=":1065030401_3" function="internal">
        <lane id=":1065030401_3_0" index="0" allow="bicycle" speed="5.56" length="9.34" shape="1322.13,1417.26 1331.27,1419.19"/>
    </edge>
    <edge id=":1065030401_4" function="internal">
        <lane id=":1065030401_4_0" index="0" allow="bicycle" speed="5.56" length="10.23" shape="1322.13,1417.26 1324.40,1418.21 1326.02,1419.83 1326.97,1422.13 1327.26,1425.10"/>
    </edge>
    <edge id=":1065030401_5" function="internal">
        <lane id=":1065030401_5_0" index="0" allow="bicycle" speed="3.65" length="4.67" shape="1322.13,1417.26 1323.12,1418.31 1323.32,1419.18 1322.75,1419.87 1321.40,1420.37"/>
    </edge>
    <edge id=":1065030401_6" function="internal">
        <lane id=":1065030401_6_0" index="0" allow="bicycle" speed="5.56" length="5.86" shape="1324.06,1425.06 1323.91,1423.25 1323.42,1421.86 1322.58,1420.90 1321.40,1420.37"/>
    </edge>
    <edge id=":1065030401_7" function="internal">
        <lane id=":1065030401_7_0" index="0" allow="bicycle" speed="5.56" length="11.10" shape="1324.06,1425.06 1324.54,1421.97 1325.91,1419.97 1328.15,1419.04 1331.27,1419.19"/>
    </edge>
    <edge id=":1065030401_8" function="internal">
        <lane id=":1065030401_8_0" index="0" allow="bicycle" speed="3.65" length="4.67" shape="1324.06,1425.06 1324.87,1423.87 1325.68,1423.48 1326.47,1423.89 1327.26,1425.10"/>
    </edge>
    <edge id=":1065030419_0" function="internal">
        <lane id=":1065030419_0_0" index="0" allow="bicycle" speed="5.56" length="0.31" shape="1113.74,771.44 1113.74,771.75"/>
    </edge>
    <edge id=":1065030419_1" function="internal">
        <lane id=":1065030419_1_0" index="0" allow="delivery bicycle" speed="3.65" length="2.34" shape="1113.74,771.44 1112.95,772.64 1112.15,773.05"/>
    </edge>
    <edge id=":1065030419_3" function="internal">
        <lane id=":1065030419_3_0" index="0" allow="delivery bicycle" speed="3.65" length="2.34" shape="1112.15,773.05 1111.35,772.66 1110.54,771.46"/>
    </edge>
    <edge id=":1065030419_2" function="internal">
        <lane id=":1065030419_2_0" index="0" allow="bicycle" speed="5.56" length="0.25" shape="1110.54,771.71 1110.54,771.46"/>
    </edge>
    <edge id=":1065030433_0" function="internal">
        <lane id=":1065030433_0_0" index="0" allow="pedestrian delivery bicycle" speed="3.65" length="4.67" shape="484.19,1117.27 484.70,1118.62 484.57,1119.50 483.78,1119.92 482.33,1119.87"/>
    </edge>
    <edge id=":1065030467_0" function="internal">
        <lane id=":1065030467_0_0" index="0" allow="bicycle" speed="5.56" length="0.29" shape="1139.30,2766.81 1139.30,2767.09"/>
    </edge>
    <edge id=":1065030467_1" function="internal">
        <lane id=":1065030467_1_0" index="0" allow="bicycle" speed="5.56" length="0.31" shape="1136.10,2767.08 1136.10,2766.77"/>
    </edge>
    <edge id=":1065030469_0" function="internal">
        <lane id=":1065030469_0_0" index="0" allow="bicycle" speed="5.56" length="14.58" shape="1378.95,2038.50 1375.42,2037.47 1371.90,2036.71 1368.35,2036.07 1364.72,2035.40"/>
    </edge>
    <edge id=":1065030469_1" function="internal">
        <lane id=":1065030469_1_0" index="0" allow="bicycle" speed="5.56" length="15.42" shape="1378.95,2038.50 1375.62,2036.78 1372.63,2034.32 1369.84,2031.53 1367.13,2028.79"/>
    </edge>
    <edge id=":1065030469_2" function="internal">
        <lane id=":1065030469_2_0" index="0" allow="bicycle" speed="3.65" length="4.67" shape="1378.95,2038.50 1378.07,2037.35 1377.95,2036.47 1378.59,2035.84 1379.99,2035.47"/>
    </edge>
    <edge id=":1065030469_3" function="internal">
        <lane id=":1065030469_3_0" index="0" allow="bicycle" speed="5.56" length="14.10" shape="1369.32,2026.46 1371.86,2029.09 1374.24,2031.65 1376.84,2033.86 1379.99,2035.47"/>
    </edge>
    <edge id=":1065030469_4" function="internal">
        <lane id=":1065030469_4_0" index="0" allow="bicycle" speed="5.56" length="20.67" shape="1369.32,2026.46 1373.99,2031.69 1374.78,2034.93 1371.69,2036.16 1364.72,2035.40"/>
    </edge>
    <edge id=":1065030469_5" function="internal">
        <lane id=":1065030469_5_0" index="0" allow="bicycle" speed="3.65" length="4.67" shape="1369.32,2026.46 1369.65,2027.87 1369.39,2028.72 1368.55,2029.03 1367.13,2028.79"/>
    </edge>
    <edge id=":1065030469_6" function="internal">
        <lane id=":1065030469_6_0" index="0" allow="bicycle" speed="4.84" length="8.03" shape="1365.34,2032.26 1368.04,2032.56 1369.24,2032.08 1368.94,2030.82 1367.13,2028.79"/>
    </edge>
    <edge id=":1065030469_7" function="internal">
        <lane id=":1065030469_7_0" index="0" allow="bicycle" speed="5.56" length="15.01" shape="1365.34,2032.26 1369.03,2032.95 1372.73,2033.62 1376.39,2034.42 1379.99,2035.47"/>
    </edge>
    <edge id=":1065030469_8" function="internal">
        <lane id=":1065030469_8_0" index="0" allow="bicycle" speed="3.65" length="4.67" shape="1365.34,2032.26 1366.36,2033.28 1366.60,2034.14 1366.05,2034.85 1364.72,2035.40"/>
    </edge>
    <edge id=":1065030489_0" function="internal">
        <lane id=":1065030489_0_0" index="0" allow="delivery bicycle" speed="5.56" length="8.70" shape="568.48,756.90 567.19,757.19 565.68,758.20 563.95,759.92 562.01,762.36"/>
    </edge>
    <edge id=":1065030489_1" function="internal">
        <lane id=":1065030489_1_0" index="0" allow="delivery bicycle" speed="5.56" length="10.95" shape="568.48,756.90 557.53,756.71"/>
    </edge>
    <edge id=":1065030489_2" function="internal">
        <lane id=":1065030489_2_0" index="0" allow="delivery bicycle" speed="3.65" length="4.67" shape="568.48,756.90 567.33,756.03 566.97,755.21 567.42,754.43 568.66,753.70"/>
    </edge>
    <edge id=":1065030489_3" function="internal">
        <lane id=":1065030489_3_0" index="0" allow="delivery bicycle" speed="5.56" length="11.14" shape="557.53,753.51 568.66,753.70"/>
    </edge>
    <edge id=":1065030489_4" function="internal">
        <lane id=":1065030489_4_0" index="0" allow="delivery bicycle" speed="5.56" length="14.38" shape="557.53,753.51 561.92,754.07 564.13,755.73 564.16,758.49 562.01,762.36"/>
    </edge>
    <edge id=":1065030489_5" function="internal">
        <lane id=":1065030489_5_0" index="0" allow="delivery bicycle" speed="3.65" length="4.67" shape="557.53,753.51 558.73,754.31 559.13,755.11 558.73,755.91 557.53,756.71"/>
    </edge>
    <edge id=":1065030489_6" function="internal">
        <lane id=":1065030489_6_0" index="0" allow="delivery bicycle" speed="4.66" length="6.11" shape="559.43,760.47 560.34,758.82 560.33,757.65 559.39,756.95 557.53,756.71"/>
    </edge>
    <edge id=":1065030489_7" function="internal">
        <lane id=":1065030489_7_0" index="0" allow="delivery bicycle" speed="5.56" length="11.85" shape="559.43,760.47 561.93,757.42 564.30,755.28 566.55,754.04 568.66,753.70"/>
    </edge>
    <edge id=":1065030489_8" function="internal">
        <lane id=":1065030489_8_0" index="0" allow="pedestrian delivery bicycle" speed="3.65" length="4.67" shape="559.43,760.47 560.78,759.97 561.66,760.12 562.07,760.92 562.01,762.36"/>
    </edge>
    <edge id=":1065030498_0" function="internal">
        <lane id=":1065030498_0_0" index="0" allow="delivery bicycle" speed="5.04" length="9.26" shape="981.99,132.87 980.54,129.98 979.43,129.13 978.67,130.30 978.25,133.50"/>
    </edge>
    <edge id=":1065030498_1" function="internal">
        <lane id=":1065030498_1_0" index="0" allow="delivery bicycle" speed="5.56" length="17.62" shape="981.99,132.87 980.33,129.05 978.46,124.78 976.76,120.45 975.57,116.48"/>
    </edge>
    <edge id=":1065030498_2" function="internal">
        <lane id=":1065030498_2_0" index="0" allow="delivery bicycle" speed="3.65" length="4.67" shape="981.99,132.87 982.27,131.45 982.85,130.78 983.74,130.84 984.94,131.64"/>
    </edge>
    <edge id=":1065030498_3" function="internal">
        <lane id=":1065030498_3_0" index="0" allow="delivery bicycle" speed="5.56" length="17.05" shape="978.70,115.79 979.86,119.68 981.50,123.82 983.31,127.90 984.94,131.64"/>
    </edge>
    <edge id=":1065030498_4" function="internal">
        <lane id=":1065030498_4_0" index="0" allow="delivery bicycle" speed="5.56" length="17.76" shape="978.70,115.79 979.12,119.92 978.99,124.61 978.59,129.32 978.25,133.50"/>
    </edge>
    <edge id=":1065030498_5" function="internal">
        <lane id=":1065030498_5_0" index="0" allow="delivery bicycle" speed="3.65" length="4.67" shape="978.70,115.79 978.17,117.14 977.48,117.70 976.61,117.48 975.57,116.48"/>
    </edge>
    <edge id=":1065030498_6" function="internal">
        <lane id=":1065030498_6_0" index="0" allow="delivery bicycle" speed="5.56" length="16.89" shape="975.06,133.32 975.41,129.27 975.83,124.86 975.99,120.47 975.57,116.48"/>
    </edge>
    <edge id=":1065030498_7" function="internal">
        <lane id=":1065030498_7_0" index="0" allow="delivery bicycle" speed="5.56" length="13.73" shape="975.06,133.32 976.44,129.98 979.32,128.46 982.54,128.95 984.94,131.64"/>
    </edge>
    <edge id=":1065030498_8" function="internal">
        <lane id=":1065030498_8_0" index="0" allow="pedestrian delivery bicycle" speed="3.65" length="4.67" shape="975.06,133.32 975.92,132.16 976.75,131.81 977.52,132.26 978.25,133.50"/>
    </edge>
    <edge id=":1065030505_0" function="internal">
        <lane id=":1065030505_0_0" index="0" allow="bicycle" speed="5.56" length="9.34" shape="1126.96,2458.02 1123.28,2449.44"/>
    </edge>
    <edge id=":1065030505_1" function="internal">
        <lane id=":1065030505_1_0" index="0" allow="bicycle" speed="5.56" length="10.36" shape="1126.96,2458.02 1126.24,2455.26 1126.59,2452.96 1128.02,2451.13 1130.53,2449.76"/>
    </edge>
    <edge id=":1065030505_2" function="internal">
        <lane id=":1065030505_2_0" index="0" allow="bicycle" speed="3.65" length="4.67" shape="1126.96,2458.02 1127.23,2456.61 1127.81,2455.93 1128.70,2455.99 1129.91,2456.78"/>
    </edge>
    <edge id=":1065030505_3" function="internal">
        <lane id=":1065030505_3_0" index="0" allow="bicycle" speed="5.00" length="5.05" shape="1131.65,2452.76 1130.43,2453.42 1129.73,2454.32 1129.56,2455.44 1129.91,2456.78"/>
    </edge>
    <edge id=":1065030505_4" function="internal">